
     RDKit          2D

371370  0  0  0  0  0  0  0  0999 V2000
  -17.5168    3.7641    0.0000 F   0  0  0  0  0  0  0  0  0  0  0  0
  -16.2020    3.0421    0.0000 C   0  0  0  0  0  0  0  0  0  0  0  0
  -14.9193    3.8197    0.0000 C   0  0  0  0  0  0  0  0  0  0  0  0
  -14.9514    5.3194    0.0000 C   0  0  0  0  0  0  0  0  0  0  0  0
  -13.6688    6.0970    0.0000 C   0  0  0  0  0  0  0  0  0  0  0  0
  -13.7009    7.5967    0.0000 C   0  0  0  0  0  0  0  0  0  0  0  0
  -12.4182    8.3744    0.0000 C   0  0  0  0  0  0  0  0  0  0  0  0
  -16.1699    1.5424    0.0000 C   0  0  0  0  0  0  0  0  0  0  0  0
  -17.4525    0.7648    0.0000 C   0  0  0  0  0  0  0  0  0  0  0  0
  -17.4204   -0.7349    0.0000 C   0  0  0  0  0  0  0  0  0  0  0  0
  -18.7031   -1.5125    0.0000 C   0  0  0  0  0  0  0  0  0  0  0  0
  -18.6709   -3.0122    0.0000 C   0  0  0  0  0  0  0  0  0  0  0  0
  -19.9536   -3.7899    0.0000 C   0  0  0  0  0  0  0  0  0  0  0  0
  -19.9215   -5.2895    0.0000 C   0  0  0  0  0  0  0  0  0  0  0  0
  -21.2042   -6.0672    0.0000 C   0  0  0  0  0  0  0  0  0  0  0  0
  -14.8550    0.8204    0.0000 C   0  0  0  0  0  0  0  0  0  0  0  0
  -14.8229   -0.6792    0.0000 C   0  0  0  0  0  0  0  0  0  0  0  0
  -13.5081   -1.4012    0.0000 C   0  0  0  0  0  0  0  0  0  0  0  0
  -13.4760   -2.9009    0.0000 C   0  0  0  0  0  0  0  0  0  0  0  0
  -12.1612   -3.6229    0.0000 C   0  0  0  0  0  0  0  0  0  0  0  0
  -12.1290   -5.1225    0.0000 C   0  0  0  0  0  0  0  0  0  0  0  0
  -13.5724    1.5981    0.0000 C   0  0  0  0  0  0  0  0  0  0  0  0
  -13.6045    3.0977    0.0000 C   0  0  0  0  0  0  0  0  0  0  0  0
  -12.3218    3.8754    0.0000 C   0  0  0  0  0  0  0  0  0  0  0  0
  -12.3540    5.3750    0.0000 C   0  0  0  0  0  0  0  0  0  0  0  0
  -11.0713    6.1527    0.0000 C   0  0  0  0  0  0  0  0  0  0  0  0
  -11.1034    7.6524    0.0000 C   0  0  0  0  0  0  0  0  0  0  0  0
   -9.8207    8.4300    0.0000 C   0  0  0  0  0  0  0  0  0  0  0  0
   -9.8529    9.9297    0.0000 C   0  0  0  0  0  0  0  0  0  0  0  0
  -12.2576    0.8761    0.0000 C   0  0  0  0  0  0  0  0  0  0  0  0
  -12.2254   -0.6236    0.0000 C   0  0  0  0  0  0  0  0  0  0  0  0
  -10.9106   -1.3456    0.0000 C   0  0  0  0  0  0  0  0  0  0  0  0
  -10.8785   -2.8452    0.0000 C   0  0  0  0  0  0  0  0  0  0  0  0
   -9.5637   -3.5672    0.0000 C   0  0  0  0  0  0  0  0  0  0  0  0
   -9.5316   -5.0669    0.0000 C   0  0  0  0  0  0  0  0  0  0  0  0
   -8.2168   -5.7889    0.0000 C   0  0  0  0  0  0  0  0  0  0  0  0
  -10.9749    1.6537    0.0000 C   0  0  0  0  0  0  0  0  0  0  0  0
  -11.0070    3.1534    0.0000 C   0  0  0  0  0  0  0  0  0  0  0  0
   -9.7243    3.9310    0.0000 C   0  0  0  0  0  0  0  0  0  0  0  0
   -9.7565    5.4307    0.0000 C   0  0  0  0  0  0  0  0  0  0  0  0
   -8.4738    6.2084    0.0000 C   0  0  0  0  0  0  0  0  0  0  0  0
   -9.6601    0.9317    0.0000 C   0  0  0  0  0  0  0  0  0  0  0  0
   -9.6280   -0.5679    0.0000 C   0  0  0  0  0  0  0  0  0  0  0  0
   -8.3131   -1.2899    0.0000 C   0  0  0  0  0  0  0  0  0  0  0  0
   -8.2810   -2.7896    0.0000 C   0  0  0  0  0  0  0  0  0  0  0  0
   -6.9662   -3.5116    0.0000 C   0  0  0  0  0  0  0  0  0  0  0  0
   -6.9341   -5.0112    0.0000 C   0  0  0  0  0  0  0  0  0  0  0  0
   -5.6193   -5.7332    0.0000 C   0  0  0  0  0  0  0  0  0  0  0  0
   -5.5871   -7.2329    0.0000 C   0  0  0  0  0  0  0  0  0  0  0  0
   -4.2723   -7.9549    0.0000 C   0  0  0  0  0  0  0  0  0  0  0  0
   -8.3774    1.7094    0.0000 C   0  0  0  0  0  0  0  0  0  0  0  0
   -8.4095    3.2090    0.0000 C   0  0  0  0  0  0  0  0  0  0  0  0
   -7.1269    3.9867    0.0000 C   0  0  0  0  0  0  0  0  0  0  0  0
   -7.1590    5.4864    0.0000 C   0  0  0  0  0  0  0  0  0  0  0  0
   -5.8763    6.2640    0.0000 C   0  0  0  0  0  0  0  0  0  0  0  0
   -7.0626    0.9874    0.0000 C   0  0  0  0  0  0  0  0  0  0  0  0
   -7.0305   -0.5123    0.0000 C   0  0  0  0  0  0  0  0  0  0  0  0
   -5.7157   -1.2343    0.0000 C   0  0  0  0  0  0  0  0  0  0  0  0
   -5.6835   -2.7339    0.0000 C   0  0  0  0  0  0  0  0  0  0  0  0
   -4.3687   -3.4559    0.0000 C   0  0  0  0  0  0  0  0  0  0  0  0
   -4.3366   -4.9556    0.0000 C   0  0  0  0  0  0  0  0  0  0  0  0
   -3.0218   -5.6776    0.0000 C   0  0  0  0  0  0  0  0  0  0  0  0
   -2.9897   -7.1772    0.0000 C   0  0  0  0  0  0  0  0  0  0  0  0
   -5.7799    1.7650    0.0000 C   0  0  0  0  0  0  0  0  0  0  0  0
   -5.8121    3.2647    0.0000 C   0  0  0  0  0  0  0  0  0  0  0  0
   -4.5294    4.0424    0.0000 C   0  0  0  0  0  0  0  0  0  0  0  0
   -4.5615    5.5420    0.0000 C   0  0  0  0  0  0  0  0  0  0  0  0
   -4.1289    6.9783    0.0000 C   0  0  0  0  0  0  0  0  0  0  0  0
   -4.4651    1.0430    0.0000 C   0  0  0  0  0  0  0  0  0  0  0  0
   -4.4330   -0.4566    0.0000 C   0  0  0  0  0  0  0  0  0  0  0  0
   -3.1182   -1.1786    0.0000 C   0  0  0  0  0  0  0  0  0  0  0  0
   -3.0861   -2.6783    0.0000 C   0  0  0  0  0  0  0  0  0  0  0  0
   -1.7712   -3.4003    0.0000 C   0  0  0  0  0  0  0  0  0  0  0  0
   -1.7391   -4.8999    0.0000 C   0  0  0  0  0  0  0  0  0  0  0  0
   -0.4243   -5.6219    0.0000 C   0  0  0  0  0  0  0  0  0  0  0  0
   -1.3038   -5.5171    0.0000 C   0  0  0  0  0  0  0  0  0  0  0  0
   -3.1825    1.8207    0.0000 C   0  0  0  0  0  0  0  0  0  0  0  0
   -3.2146    3.3204    0.0000 C   0  0  0  0  0  0  0  0  0  0  0  0
   -1.8676    1.0987    0.0000 C   0  0  0  0  0  0  0  0  0  0  0  0
   -1.8355   -0.4010    0.0000 C   0  0  0  0  0  0  0  0  0  0  0  0
   -0.5207   -1.1230    0.0000 C   0  0  0  0  0  0  0  0  0  0  0  0
   -0.4886   -2.6226    0.0000 C   0  0  0  0  0  0  0  0  0  0  0  0
   -1.0191   -3.3319    0.0000 C   0  0  0  0  0  0  0  0  0  0  0  0
   -0.5850    1.8763    0.0000 C   0  0  0  0  0  0  0  0  0  0  0  0
   -0.6171    3.3760    0.0000 C   0  0  0  0  0  0  0  0  0  0  0  0
    0.0067    4.0048    0.0000 C   0  0  0  0  0  0  0  0  0  0  0  0
    0.7298    1.1543    0.0000 C   0  0  0  0  0  0  0  0  0  0  0  0
    0.7620   -0.3453    0.0000 C   0  0  0  0  0  0  0  0  0  0  0  0
    2.0768   -1.0673    0.0000 C   0  0  0  0  0  0  0  0  0  0  0  0
    2.1089   -2.5670    0.0000 C   0  0  0  0  0  0  0  0  0  0  0  0
    3.4237   -3.2890    0.0000 C   0  0  0  0  0  0  0  0  0  0  0  0
    3.4558   -4.7886    0.0000 C   0  0  0  0  0  0  0  0  0  0  0  0
    4.7706   -5.5106    0.0000 C   0  0  0  0  0  0  0  0  0  0  0  0
    4.8028   -7.0103    0.0000 C   0  0  0  0  0  0  0  0  0  0  0  0
    6.1176   -7.7323    0.0000 C   0  0  0  0  0  0  0  0  0  0  0  0
    2.0125    1.9320    0.0000 C   0  0  0  0  0  0  0  0  0  0  0  0
    1.9804    3.4317    0.0000 C   0  0  0  0  0  0  0  0  0  0  0  0
    0.6656    4.1537    0.0000 C   0  0  0  0  0  0  0  0  0  0  0  0
    0.6334    5.6533    0.0000 C   0  0  0  0  0  0  0  0  0  0  0  0
    3.3273    1.2100    0.0000 C   0  0  0  0  0  0  0  0  0  0  0  0
    4.6100    1.9877    0.0000 C   0  0  0  0  0  0  0  0  0  0  0  0
    5.9248    1.2657    0.0000 C   0  0  0  0  0  0  0  0  0  0  0  0
    7.2075    2.0433    0.0000 C   0  0  0  0  0  0  0  0  0  0  0  0
    8.0626    3.2757    0.0000 C   0  0  0  0  0  0  0  0  0  0  0  0
    3.3594   -0.2897    0.0000 C   0  0  0  0  0  0  0  0  0  0  0  0
    4.6743   -1.0117    0.0000 C   0  0  0  0  0  0  0  0  0  0  0  0
    4.7064   -2.5113    0.0000 C   0  0  0  0  0  0  0  0  0  0  0  0
    6.0212   -3.2333    0.0000 C   0  0  0  0  0  0  0  0  0  0  0  0
    6.0533   -4.7330    0.0000 C   0  0  0  0  0  0  0  0  0  0  0  0
    7.4607   -4.2141    0.0000 C   0  0  0  0  0  0  0  0  0  0  0  0
    2.0768   -1.0673    0.0000 C   0  0  0  0  0  0  0  0  0  0  0  0
    2.1089   -2.5670    0.0000 C   0  0  0  0  0  0  0  0  0  0  0  0
    0.8262   -3.3446    0.0000 C   0  0  0  0  0  0  0  0  0  0  0  0
    0.8584   -4.8443    0.0000 C   0  0  0  0  0  0  0  0  0  0  0  0
   -0.4243   -5.6219    0.0000 C   0  0  0  0  0  0  0  0  0  0  0  0
   -0.3922   -7.1216    0.0000 C   0  0  0  0  0  0  0  0  0  0  0  0
   -1.6749   -7.8992    0.0000 C   0  0  0  0  0  0  0  0  0  0  0  0
   -0.3239   -8.5511    0.0000 C   0  0  0  0  0  0  0  0  0  0  0  0
    0.7620   -0.3453    0.0000 C   0  0  0  0  0  0  0  0  0  0  0  0
   -0.5207   -1.1230    0.0000 C   0  0  0  0  0  0  0  0  0  0  0  0
   -1.8355   -0.4010    0.0000 C   0  0  0  0  0  0  0  0  0  0  0  0
   -3.1182   -1.1786    0.0000 C   0  0  0  0  0  0  0  0  0  0  0  0
   -4.4330   -0.4566    0.0000 C   0  0  0  0  0  0  0  0  0  0  0  0
   -5.3517   -1.6424    0.0000 C   0  0  0  0  0  0  0  0  0  0  0  0
    0.7298    1.1543    0.0000 C   0  0  0  0  0  0  0  0  0  0  0  0
   -0.5850    1.8763    0.0000 C   0  0  0  0  0  0  0  0  0  0  0  0
   -0.6171    3.3760    0.0000 C   0  0  0  0  0  0  0  0  0  0  0  0
   -1.9319    4.0980    0.0000 C   0  0  0  0  0  0  0  0  0  0  0  0
   -3.2829    4.7499    0.0000 C   0  0  0  0  0  0  0  0  0  0  0  0
    2.0125    1.9320    0.0000 C   0  0  0  0  0  0  0  0  0  0  0  0
    1.9804    3.4317    0.0000 C   0  0  0  0  0  0  0  0  0  0  0  0
    1.6879    4.9029    0.0000 C   0  0  0  0  0  0  0  0  0  0  0  0
    3.3273    1.2100    0.0000 C   0  0  0  0  0  0  0  0  0  0  0  0
    4.6100    1.9877    0.0000 C   0  0  0  0  0  0  0  0  0  0  0  0
    5.9248    1.2657    0.0000 C   0  0  0  0  0  0  0  0  0  0  0  0
    7.2075    2.0433    0.0000 C   0  0  0  0  0  0  0  0  0  0  0  0
    8.5223    1.3213    0.0000 C   0  0  0  0  0  0  0  0  0  0  0  0
    9.8049    2.0990    0.0000 C   0  0  0  0  0  0  0  0  0  0  0  0
   11.1198    1.3770    0.0000 C   0  0  0  0  0  0  0  0  0  0  0  0
   12.4024    2.1546    0.0000 C   0  0  0  0  0  0  0  0  0  0  0  0
   13.8887    1.9519    0.0000 C   0  0  0  0  0  0  0  0  0  0  0  0
    3.3594   -0.2897    0.0000 C   0  0  0  0  0  0  0  0  0  0  0  0
    4.6743   -1.0117    0.0000 C   0  0  0  0  0  0  0  0  0  0  0  0
    4.7064   -2.5113    0.0000 C   0  0  0  0  0  0  0  0  0  0  0  0
    6.0212   -3.2333    0.0000 C   0  0  0  0  0  0  0  0  0  0  0  0
    6.0533   -4.7330    0.0000 C   0  0  0  0  0  0  0  0  0  0  0  0
    7.5445   -4.5701    0.0000 C   0  0  0  0  0  0  0  0  0  0  0  0
    2.0768   -1.0673    0.0000 C   0  0  0  0  0  0  0  0  0  0  0  0
    2.1089   -2.5670    0.0000 C   0  0  0  0  0  0  0  0  0  0  0  0
    0.8262   -3.3446    0.0000 C   0  0  0  0  0  0  0  0  0  0  0  0
    0.8584   -4.8443    0.0000 C   0  0  0  0  0  0  0  0  0  0  0  0
   -0.4243   -5.6219    0.0000 C   0  0  0  0  0  0  0  0  0  0  0  0
   -0.3922   -7.1216    0.0000 C   0  0  0  0  0  0  0  0  0  0  0  0
   -1.6749   -7.8992    0.0000 C   0  0  0  0  0  0  0  0  0  0  0  0
   -1.6427   -9.3989    0.0000 C   0  0  0  0  0  0  0  0  0  0  0  0
   -2.6991  -10.4638    0.0000 C   0  0  0  0  0  0  0  0  0  0  0  0
    0.7620   -0.3453    0.0000 C   0  0  0  0  0  0  0  0  0  0  0  0
   -0.5207   -1.1230    0.0000 C   0  0  0  0  0  0  0  0  0  0  0  0
   -1.8544   -1.8095    0.0000 C   0  0  0  0  0  0  0  0  0  0  0  0
    0.7298    1.1543    0.0000 C   0  0  0  0  0  0  0  0  0  0  0  0
   -0.5850    1.8763    0.0000 C   0  0  0  0  0  0  0  0  0  0  0  0
   -0.6171    3.3760    0.0000 C   0  0  0  0  0  0  0  0  0  0  0  0
   -1.9319    4.0980    0.0000 C   0  0  0  0  0  0  0  0  0  0  0  0
   -1.9640    5.5977    0.0000 C   0  0  0  0  0  0  0  0  0  0  0  0
   -3.2788    6.3197    0.0000 C   0  0  0  0  0  0  0  0  0  0  0  0
   -3.8464    7.7082    0.0000 C   0  0  0  0  0  0  0  0  0  0  0  0
    2.0125    1.9320    0.0000 C   0  0  0  0  0  0  0  0  0  0  0  0
    1.9804    3.4317    0.0000 C   0  0  0  0  0  0  0  0  0  0  0  0
    3.2631    4.2093    0.0000 C   0  0  0  0  0  0  0  0  0  0  0  0
    3.2309    5.7090    0.0000 C   0  0  0  0  0  0  0  0  0  0  0  0
    4.5136    6.4866    0.0000 C   0  0  0  0  0  0  0  0  0  0  0  0
    4.4815    7.9863    0.0000 C   0  0  0  0  0  0  0  0  0  0  0  0
    5.7641    8.7639    0.0000 C   0  0  0  0  0  0  0  0  0  0  0  0
    5.7320   10.2636    0.0000 C   0  0  0  0  0  0  0  0  0  0  0  0
    6.9103   11.1918    0.0000 C   0  0  0  0  0  0  0  0  0  0  0  0
    3.3273    1.2100    0.0000 C   0  0  0  0  0  0  0  0  0  0  0  0
    4.6100    1.9877    0.0000 C   0  0  0  0  0  0  0  0  0  0  0  0
    5.9248    1.2657    0.0000 C   0  0  0  0  0  0  0  0  0  0  0  0
    7.2075    2.0433    0.0000 C   0  0  0  0  0  0  0  0  0  0  0  0
    8.5223    1.3213    0.0000 C   0  0  0  0  0  0  0  0  0  0  0  0
    9.8049    2.0990    0.0000 C   0  0  0  0  0  0  0  0  0  0  0  0
   11.1198    1.3770    0.0000 C   0  0  0  0  0  0  0  0  0  0  0  0
   11.8871    2.6659    0.0000 C   0  0  0  0  0  0  0  0  0  0  0  0
    3.3594   -0.2897    0.0000 C   0  0  0  0  0  0  0  0  0  0  0  0
    4.6743   -1.0117    0.0000 C   0  0  0  0  0  0  0  0  0  0  0  0
    4.7064   -2.5113    0.0000 C   0  0  0  0  0  0  0  0  0  0  0  0
    6.0212   -3.2333    0.0000 C   0  0  0  0  0  0  0  0  0  0  0  0
    6.0533   -4.7330    0.0000 C   0  0  0  0  0  0  0  0  0  0  0  0
    7.3681   -5.4550    0.0000 C   0  0  0  0  0  0  0  0  0  0  0  0
    7.4003   -6.9546    0.0000 C   0  0  0  0  0  0  0  0  0  0  0  0
    8.8507   -7.3370    0.0000 C   0  0  0  0  0  0  0  0  0  0  0  0
    2.0768   -1.0673    0.0000 C   0  0  0  0  0  0  0  0  0  0  0  0
    2.1089   -2.5670    0.0000 C   0  0  0  0  0  0  0  0  0  0  0  0
    0.8262   -3.3446    0.0000 C   0  0  0  0  0  0  0  0  0  0  0  0
    0.8584   -4.8443    0.0000 C   0  0  0  0  0  0  0  0  0  0  0  0
   -0.4243   -5.6219    0.0000 C   0  0  0  0  0  0  0  0  0  0  0  0
   -0.3922   -7.1216    0.0000 C   0  0  0  0  0  0  0  0  0  0  0  0
   -1.6749   -7.8992    0.0000 C   0  0  0  0  0  0  0  0  0  0  0  0
   -1.1073   -9.2877    0.0000 C   0  0  0  0  0  0  0  0  0  0  0  0
    0.7620   -0.3453    0.0000 C   0  0  0  0  0  0  0  0  0  0  0  0
   -0.5207   -1.1230    0.0000 C   0  0  0  0  0  0  0  0  0  0  0  0
   -1.8355   -0.4010    0.0000 C   0  0  0  0  0  0  0  0  0  0  0  0
   -3.1182   -1.1786    0.0000 C   0  0  0  0  0  0  0  0  0  0  0  0
   -4.4330   -0.4566    0.0000 C   0  0  0  0  0  0  0  0  0  0  0  0
   -5.6113   -1.3848    0.0000 C   0  0  0  0  0  0  0  0  0  0  0  0
    0.7298    1.1543    0.0000 C   0  0  0  0  0  0  0  0  0  0  0  0
   -0.5850    1.8763    0.0000 C   0  0  0  0  0  0  0  0  0  0  0  0
   -0.6171    3.3760    0.0000 C   0  0  0  0  0  0  0  0  0  0  0  0
   -1.9319    4.0980    0.0000 C   0  0  0  0  0  0  0  0  0  0  0  0
   -2.4994    5.4865    0.0000 C   0  0  0  0  0  0  0  0  0  0  0  0
    2.0125    1.9320    0.0000 C   0  0  0  0  0  0  0  0  0  0  0  0
    1.9804    3.4317    0.0000 C   0  0  0  0  0  0  0  0  0  0  0  0
    2.7477    4.7206    0.0000 C   0  0  0  0  0  0  0  0  0  0  0  0
    3.3273    1.2100    0.0000 C   0  0  0  0  0  0  0  0  0  0  0  0
    4.6100    1.9877    0.0000 C   0  0  0  0  0  0  0  0  0  0  0  0
    5.9248    1.2657    0.0000 C   0  0  0  0  0  0  0  0  0  0  0  0
    7.2075    2.0433    0.0000 C   0  0  0  0  0  0  0  0  0  0  0  0
    8.5223    1.3213    0.0000 C   0  0  0  0  0  0  0  0  0  0  0  0
    9.8049    2.0990    0.0000 C   0  0  0  0  0  0  0  0  0  0  0  0
   11.1198    1.3770    0.0000 C   0  0  0  0  0  0  0  0  0  0  0  0
   12.4024    2.1546    0.0000 C   0  0  0  0  0  0  0  0  0  0  0  0
   13.7954    1.5983    0.0000 C   0  0  0  0  0  0  0  0  0  0  0  0
    3.3594   -0.2897    0.0000 C   0  0  0  0  0  0  0  0  0  0  0  0
    4.6743   -1.0117    0.0000 C   0  0  0  0  0  0  0  0  0  0  0  0
    2.0768   -1.0673    0.0000 C   0  0  0  0  0  0  0  0  0  0  0  0
    2.1089   -2.5670    0.0000 C   0  0  0  0  0  0  0  0  0  0  0  0
    0.8262   -3.3446    0.0000 C   0  0  0  0  0  0  0  0  0  0  0  0
    0.8584   -4.8443    0.0000 C   0  0  0  0  0  0  0  0  0  0  0  0
   -0.4243   -5.6219    0.0000 C   0  0  0  0  0  0  0  0  0  0  0  0
   -0.3922   -7.1216    0.0000 C   0  0  0  0  0  0  0  0  0  0  0  0
   -1.6749   -7.8992    0.0000 C   0  0  0  0  0  0  0  0  0  0  0  0
   -1.6427   -9.3989    0.0000 C   0  0  0  0  0  0  0  0  0  0  0  0
   -3.0754   -9.8431    0.0000 C   0  0  0  0  0  0  0  0  0  0  0  0
    0.7620   -0.3453    0.0000 C   0  0  0  0  0  0  0  0  0  0  0  0
   -0.5207   -1.1230    0.0000 C   0  0  0  0  0  0  0  0  0  0  0  0
   -1.8355   -0.4010    0.0000 C   0  0  0  0  0  0  0  0  0  0  0  0
   -3.1182   -1.1786    0.0000 C   0  0  0  0  0  0  0  0  0  0  0  0
   -4.3352   -0.3017    0.0000 C   0  0  0  0  0  0  0  0  0  0  0  0
    0.7298    1.1543    0.0000 C   0  0  0  0  0  0  0  0  0  0  0  0
   -0.5850    1.8763    0.0000 C   0  0  0  0  0  0  0  0  0  0  0  0
   -0.6171    3.3760    0.0000 C   0  0  0  0  0  0  0  0  0  0  0  0
   -1.9319    4.0980    0.0000 C   0  0  0  0  0  0  0  0  0  0  0  0
   -1.9640    5.5977    0.0000 C   0  0  0  0  0  0  0  0  0  0  0  0
   -3.2788    6.3197    0.0000 C   0  0  0  0  0  0  0  0  0  0  0  0
   -3.4935    7.8042    0.0000 C   0  0  0  0  0  0  0  0  0  0  0  0
    2.0125    1.9320    0.0000 C   0  0  0  0  0  0  0  0  0  0  0  0
    1.9804    3.4317    0.0000 C   0  0  0  0  0  0  0  0  0  0  0  0
    3.2631    4.2093    0.0000 C   0  0  0  0  0  0  0  0  0  0  0  0
    3.2309    5.7090    0.0000 C   0  0  0  0  0  0  0  0  0  0  0  0
    4.5136    6.4866    0.0000 C   0  0  0  0  0  0  0  0  0  0  0  0
    4.4815    7.9863    0.0000 C   0  0  0  0  0  0  0  0  0  0  0  0
    5.7641    8.7639    0.0000 C   0  0  0  0  0  0  0  0  0  0  0  0
    5.7320   10.2636    0.0000 C   0  0  0  0  0  0  0  0  0  0  0  0
    7.0999   10.8791    0.0000 C   0  0  0  0  0  0  0  0  0  0  0  0
    3.3273    1.2100    0.0000 C   0  0  0  0  0  0  0  0  0  0  0  0
    4.6100    1.9877    0.0000 C   0  0  0  0  0  0  0  0  0  0  0  0
    5.9248    1.2657    0.0000 C   0  0  0  0  0  0  0  0  0  0  0  0
    7.2075    2.0433    0.0000 C   0  0  0  0  0  0  0  0  0  0  0  0
    8.5223    1.3213    0.0000 C   0  0  0  0  0  0  0  0  0  0  0  0
    9.8049    2.0990    0.0000 C   0  0  0  0  0  0  0  0  0  0  0  0
   11.1198    1.3770    0.0000 C   0  0  0  0  0  0  0  0  0  0  0  0
   12.4024    2.1546    0.0000 C   0  0  0  0  0  0  0  0  0  0  0  0
   13.3711    1.0093    0.0000 C   0  0  0  0  0  0  0  0  0  0  0  0
    3.3594   -0.2897    0.0000 C   0  0  0  0  0  0  0  0  0  0  0  0
    4.6743   -1.0117    0.0000 C   0  0  0  0  0  0  0  0  0  0  0  0
    4.7064   -2.5113    0.0000 C   0  0  0  0  0  0  0  0  0  0  0  0
    6.0212   -3.2333    0.0000 C   0  0  0  0  0  0  0  0  0  0  0  0
    6.0533   -4.7330    0.0000 C   0  0  0  0  0  0  0  0  0  0  0  0
    6.3707   -6.1990    0.0000 C   0  0  0  0  0  0  0  0  0  0  0  0
    2.0768   -1.0673    0.0000 C   0  0  0  0  0  0  0  0  0  0  0  0
    2.1089   -2.5670    0.0000 C   0  0  0  0  0  0  0  0  0  0  0  0
    0.8262   -3.3446    0.0000 C   0  0  0  0  0  0  0  0  0  0  0  0
    0.8584   -4.8443    0.0000 C   0  0  0  0  0  0  0  0  0  0  0  0
   -0.4243   -5.6219    0.0000 C   0  0  0  0  0  0  0  0  0  0  0  0
   -0.3922   -7.1216    0.0000 C   0  0  0  0  0  0  0  0  0  0  0  0
   -1.6749   -7.8992    0.0000 C   0  0  0  0  0  0  0  0  0  0  0  0
   -2.5089   -9.1460    0.0000 C   0  0  0  0  0  0  0  0  0  0  0  0
    0.7620   -0.3453    0.0000 C   0  0  0  0  0  0  0  0  0  0  0  0
   -0.6708   -0.7895    0.0000 C   0  0  0  0  0  0  0  0  0  0  0  0
    0.7298    1.1543    0.0000 C   0  0  0  0  0  0  0  0  0  0  0  0
   -0.5850    1.8763    0.0000 C   0  0  0  0  0  0  0  0  0  0  0  0
   -0.6171    3.3760    0.0000 C   0  0  0  0  0  0  0  0  0  0  0  0
   -1.9319    4.0980    0.0000 C   0  0  0  0  0  0  0  0  0  0  0  0
   -0.6101    4.8071    0.0000 C   0  0  0  0  0  0  0  0  0  0  0  0
    2.0125    1.9320    0.0000 C   0  0  0  0  0  0  0  0  0  0  0  0
    1.9804    3.4317    0.0000 C   0  0  0  0  0  0  0  0  0  0  0  0
    3.2631    4.2093    0.0000 C   0  0  0  0  0  0  0  0  0  0  0  0
    3.2309    5.7090    0.0000 C   0  0  0  0  0  0  0  0  0  0  0  0
    4.6636    6.1531    0.0000 C   0  0  0  0  0  0  0  0  0  0  0  0
    3.3273    1.2100    0.0000 C   0  0  0  0  0  0  0  0  0  0  0  0
    4.6100    1.9877    0.0000 C   0  0  0  0  0  0  0  0  0  0  0  0
    5.9248    1.2657    0.0000 C   0  0  0  0  0  0  0  0  0  0  0  0
    7.2075    2.0433    0.0000 C   0  0  0  0  0  0  0  0  0  0  0  0
    8.5223    1.3213    0.0000 C   0  0  0  0  0  0  0  0  0  0  0  0
    9.8049    2.0990    0.0000 C   0  0  0  0  0  0  0  0  0  0  0  0
   10.2987    0.6826    0.0000 C   0  0  0  0  0  0  0  0  0  0  0  0
    3.3594   -0.2897    0.0000 C   0  0  0  0  0  0  0  0  0  0  0  0
    4.6743   -1.0117    0.0000 C   0  0  0  0  0  0  0  0  0  0  0  0
    4.7064   -2.5113    0.0000 C   0  0  0  0  0  0  0  0  0  0  0  0
    6.0212   -3.2333    0.0000 C   0  0  0  0  0  0  0  0  0  0  0  0
    6.0533   -4.7330    0.0000 C   0  0  0  0  0  0  0  0  0  0  0  0
    7.3681   -5.4550    0.0000 C   0  0  0  0  0  0  0  0  0  0  0  0
    7.4003   -6.9546    0.0000 C   0  0  0  0  0  0  0  0  0  0  0  0
    8.7151   -7.6766    0.0000 C   0  0  0  0  0  0  0  0  0  0  0  0
    8.7472   -9.1763    0.0000 C   0  0  0  0  0  0  0  0  0  0  0  0
    2.0768   -1.0673    0.0000 C   0  0  0  0  0  0  0  0  0  0  0  0
    2.1089   -2.5670    0.0000 C   0  0  0  0  0  0  0  0  0  0  0  0
    0.8262   -3.3446    0.0000 C   0  0  0  0  0  0  0  0  0  0  0  0
    0.8584   -4.8443    0.0000 C   0  0  0  0  0  0  0  0  0  0  0  0
   -0.4243   -5.6219    0.0000 C   0  0  0  0  0  0  0  0  0  0  0  0
   -0.3922   -7.1216    0.0000 C   0  0  0  0  0  0  0  0  0  0  0  0
   -1.6749   -7.8992    0.0000 C   0  0  0  0  0  0  0  0  0  0  0  0
   -2.1824   -9.3108    0.0000 C   0  0  0  0  0  0  0  0  0  0  0  0
    0.7620   -0.3453    0.0000 C   0  0  0  0  0  0  0  0  0  0  0  0
   -0.5207   -1.1230    0.0000 C   0  0  0  0  0  0  0  0  0  0  0  0
   -1.8355   -0.4010    0.0000 C   0  0  0  0  0  0  0  0  0  0  0  0
   -3.3090   -0.1204    0.0000 C   0  0  0  0  0  0  0  0  0  0  0  0
    0.7298    1.1543    0.0000 C   0  0  0  0  0  0  0  0  0  0  0  0
   -0.5850    1.8763    0.0000 C   0  0  0  0  0  0  0  0  0  0  0  0
   -0.6171    3.3760    0.0000 C   0  0  0  0  0  0  0  0  0  0  0  0
   -1.9319    4.0980    0.0000 C   0  0  0  0  0  0  0  0  0  0  0  0
   -0.8210    5.1059    0.0000 C   0  0  0  0  0  0  0  0  0  0  0  0
    2.0125    1.9320    0.0000 C   0  0  0  0  0  0  0  0  0  0  0  0
    1.9804    3.4317    0.0000 C   0  0  0  0  0  0  0  0  0  0  0  0
    3.4131    3.8758    0.0000 C   0  0  0  0  0  0  0  0  0  0  0  0
    3.3273    1.2100    0.0000 C   0  0  0  0  0  0  0  0  0  0  0  0
    4.6100    1.9877    0.0000 C   0  0  0  0  0  0  0  0  0  0  0  0
    5.9248    1.2657    0.0000 C   0  0  0  0  0  0  0  0  0  0  0  0
    7.2075    2.0433    0.0000 C   0  0  0  0  0  0  0  0  0  0  0  0
    8.5223    1.3213    0.0000 C   0  0  0  0  0  0  0  0  0  0  0  0
    9.8049    2.0990    0.0000 C   0  0  0  0  0  0  0  0  0  0  0  0
   11.1198    1.3770    0.0000 C   0  0  0  0  0  0  0  0  0  0  0  0
   12.4024    2.1546    0.0000 C   0  0  0  0  0  0  0  0  0  0  0  0
   13.6194    1.2777    0.0000 C   0  0  0  0  0  0  0  0  0  0  0  0
    3.3594   -0.2897    0.0000 C   0  0  0  0  0  0  0  0  0  0  0  0
    4.6743   -1.0117    0.0000 C   0  0  0  0  0  0  0  0  0  0  0  0
    4.7064   -2.5113    0.0000 C   0  0  0  0  0  0  0  0  0  0  0  0
    6.0212   -3.2333    0.0000 C   0  0  0  0  0  0  0  0  0  0  0  0
    6.0533   -4.7330    0.0000 C   0  0  0  0  0  0  0  0  0  0  0  0
    7.2703   -5.6099    0.0000 C   0  0  0  0  0  0  0  0  0  0  0  0
    2.0768   -1.0673    0.0000 C   0  0  0  0  0  0  0  0  0  0  0  0
    2.1089   -2.5670    0.0000 C   0  0  0  0  0  0  0  0  0  0  0  0
    0.8262   -3.3446    0.0000 C   0  0  0  0  0  0  0  0  0  0  0  0
    0.8584   -4.8443    0.0000 C   0  0  0  0  0  0  0  0  0  0  0  0
   -0.4243   -5.6219    0.0000 C   0  0  0  0  0  0  0  0  0  0  0  0
   -0.3922   -7.1216    0.0000 C   0  0  0  0  0  0  0  0  0  0  0  0
   -1.6749   -7.8992    0.0000 C   0  0  0  0  0  0  0  0  0  0  0  0
   -1.6427   -9.3989    0.0000 C   0  0  0  0  0  0  0  0  0  0  0  0
   -2.9254  -10.1766    0.0000 C   0  0  0  0  0  0  0  0  0  0  0  0
    0.7620   -0.3453    0.0000 C   0  0  0  0  0  0  0  0  0  0  0  0
   -0.5207   -1.1230    0.0000 C   0  0  0  0  0  0  0  0  0  0  0  0
   -1.8355   -0.4010    0.0000 C   0  0  0  0  0  0  0  0  0  0  0  0
   -3.1182   -1.1786    0.0000 C   0  0  0  0  0  0  0  0  0  0  0  0
   -4.0868   -0.0333    0.0000 C   0  0  0  0  0  0  0  0  0  0  0  0
    0.7298    1.1543    0.0000 C   0  0  0  0  0  0  0  0  0  0  0  0
   -0.5850    1.8763    0.0000 C   0  0  0  0  0  0  0  0  0  0  0  0
   -0.6171    3.3760    0.0000 C   0  0  0  0  0  0  0  0  0  0  0  0
   -1.9319    4.0980    0.0000 C   0  0  0  0  0  0  0  0  0  0  0  0
   -1.9640    5.5977    0.0000 C   0  0  0  0  0  0  0  0  0  0  0  0
   -3.2788    6.3197    0.0000 C   0  0  0  0  0  0  0  0  0  0  0  0
   -3.3110    7.8193    0.0000 C   0  0  0  0  0  0  0  0  0  0  0  0
   -4.6258    8.5413    0.0000 C   0  0  0  0  0  0  0  0  0  0  0  0
   -4.6579   10.0410    0.0000 C   0  0  0  0  0  0  0  0  0  0  0  0
    2.0125    1.9320    0.0000 C   0  0  0  0  0  0  0  0  0  0  0  0
    1.9804    3.4317    0.0000 C   0  0  0  0  0  0  0  0  0  0  0  0
    3.2631    4.2093    0.0000 C   0  0  0  0  0  0  0  0  0  0  0  0
    3.2309    5.7090    0.0000 C   0  0  0  0  0  0  0  0  0  0  0  0
    4.5136    6.4866    0.0000 C   0  0  0  0  0  0  0  0  0  0  0  0
    4.4815    7.9863    0.0000 C   0  0  0  0  0  0  0  0  0  0  0  0
    5.7641    8.7639    0.0000 C   0  0  0  0  0  0  0  0  0  0  0  0
    2.5440    3.3347    0.0000 Br  0  0  0  0  0  0  0  0  0  0  0  0
  2  1  1  6
  2  3  1  0
  3  4  1  0
  4  5  1  0
  5  6  1  0
  6  7  1  0
  2  8  1  0
  8  9  1  6
  9 10  1  0
 10 11  1  0
 11 12  1  0
 12 13  1  0
 13 14  1  0
 14 15  1  0
  8 16  1  0
 16 17  1  1
 17 18  1  0
 18 19  1  0
 19 20  1  0
 20 21  1  0
 16 22  1  0
 22 23  1  1
 23 24  1  0
 24 25  1  0
 25 26  1  0
 26 27  1  0
 27 28  1  0
 28 29  1  0
 22 30  1  0
 30 31  1  1
 31 32  1  0
 32 33  1  0
 33 34  1  0
 34 35  1  0
 35 36  1  0
 30 37  1  0
 37 38  1  6
 38 39  1  0
 39 40  1  0
 40 41  1  0
 37 42  1  0
 42 43  1  1
 43 44  1  0
 44 45  1  0
 45 46  1  0
 46 47  1  0
 47 48  1  0
 48 49  1  0
 49 50  1  0
 42 51  1  0
 51 52  1  1
 52 53  1  0
 53 54  1  0
 54 55  1  0
 51 56  1  0
 56 57  1  1
 57 58  1  0
 58 59  1  0
 59 60  1  0
 60 61  1  0
 61 62  1  0
 62 63  1  0
 56 64  1  0
 64 65  1  6
 65 66  1  0
 66 67  1  0
 67 68  1  0
 64 69  1  0
 69 70  1  1
 70 71  1  0
 71 72  1  0
 72 73  1  0
 73 74  1  0
 74 75  1  0
 75 76  1  0
 69 77  1  0
 77 78  1  1
 77 79  1  0
 79 80  1  6
 80 81  1  0
 81 82  1  0
 82 83  1  0
 79 84  1  0
 84 85  1  1
 85 86  1  0
 84 87  1  0
 87 88  1  6
 88 89  1  0
 89 90  1  0
 90 91  1  0
 91 92  1  0
 92 93  1  0
 93 94  1  0
 94 95  1  0
 87 96  1  0
 96 97  1  1
 97 98  1  0
 98 99  1  0
 96100  1  0
100101  1  1
101102  1  0
102103  1  0
103104  1  0
100105  1  0
105106  1  1
106107  1  0
107108  1  0
108109  1  0
109110  1  0
105111  1  0
111112  1  6
112113  1  0
113114  1  0
114115  1  0
115116  1  0
116117  1  0
117118  1  0
111119  1  0
119120  1  1
120121  1  0
121122  1  0
122123  1  0
123124  1  0
119125  1  0
125126  1  6
126127  1  0
127128  1  0
128129  1  0
125130  1  0
130131  1  1
131132  1  0
130133  1  0
133134  1  1
134135  1  0
135136  1  0
136137  1  0
137138  1  0
138139  1  0
139140  1  0
140141  1  0
133142  1  0
142143  1  1
143144  1  0
144145  1  0
145146  1  0
146147  1  0
142148  1  0
148149  1  6
149150  1  0
150151  1  0
151152  1  0
152153  1  0
153154  1  0
154155  1  0
155156  1  0
148157  1  0
157158  1  6
158159  1  0
157160  1  0
160161  1  1
161162  1  0
162163  1  0
163164  1  0
164165  1  0
165166  1  0
160167  1  0
167168  1  6
168169  1  0
169170  1  0
170171  1  0
171172  1  0
172173  1  0
173174  1  0
174175  1  0
167176  1  0
176177  1  1
177178  1  0
178179  1  0
179180  1  0
180181  1  0
181182  1  0
182183  1  0
176184  1  0
184185  1  6
185186  1  0
186187  1  0
187188  1  0
188189  1  0
189190  1  0
190191  1  0
184192  1  0
192193  1  6
193194  1  0
194195  1  0
195196  1  0
196197  1  0
197198  1  0
198199  1  0
192200  1  0
200201  1  1
201202  1  0
202203  1  0
203204  1  0
204205  1  0
200206  1  0
206207  1  6
207208  1  0
208209  1  0
209210  1  0
206211  1  0
211212  1  6
212213  1  0
211214  1  0
214215  1  6
215216  1  0
216217  1  0
217218  1  0
218219  1  0
219220  1  0
220221  1  0
221222  1  0
214223  1  0
223224  1  1
223225  1  0
225226  1  1
226227  1  0
227228  1  0
228229  1  0
229230  1  0
230231  1  0
231232  1  0
232233  1  0
225234  1  0
234235  1  1
235236  1  0
236237  1  0
237238  1  0
234239  1  0
239240  1  1
240241  1  0
241242  1  0
242243  1  0
243244  1  0
244245  1  0
239246  1  0
246247  1  6
247248  1  0
248249  1  0
249250  1  0
250251  1  0
251252  1  0
252253  1  0
253254  1  0
246255  1  0
255256  1  6
256257  1  0
257258  1  0
258259  1  0
259260  1  0
260261  1  0
261262  1  0
262263  1  0
255264  1  0
264265  1  6
265266  1  0
266267  1  0
267268  1  0
268269  1  0
264270  1  0
270271  1  6
271272  1  0
272273  1  0
273274  1  0
274275  1  0
275276  1  0
276277  1  0
270278  1  0
278279  1  1
278280  1  0
280281  1  1
281282  1  0
282283  1  0
283284  1  0
280285  1  0
285286  1  1
286287  1  0
287288  1  0
288289  1  0
285290  1  0
290291  1  1
291292  1  0
292293  1  0
293294  1  0
294295  1  0
295296  1  0
290297  1  0
297298  1  6
298299  1  0
299300  1  0
300301  1  0
301302  1  0
302303  1  0
303304  1  0
304305  1  0
297306  1  0
306307  1  6
307308  1  0
308309  1  0
309310  1  0
310311  1  0
311312  1  0
312313  1  0
306314  1  0
314315  1  6
315316  1  0
316317  1  0
314318  1  0
318319  1  6
319320  1  0
320321  1  0
321322  1  0
318323  1  0
323324  1  1
324325  1  0
323326  1  0
326327  1  1
327328  1  0
328329  1  0
329330  1  0
330331  1  0
331332  1  0
332333  1  0
333334  1  0
326335  1  0
335336  1  1
336337  1  0
337338  1  0
338339  1  0
339340  1  0
335341  1  0
341342  1  1
342343  1  0
343344  1  0
344345  1  0
345346  1  0
346347  1  0
347348  1  0
348349  1  0
341350  1  0
350351  1  1
351352  1  0
352353  1  0
353354  1  0
350355  1  0
355356  1  1
356357  1  0
357358  1  0
358359  1  0
359360  1  0
360361  1  0
361362  1  0
362363  1  0
355364  1  0
364365  1  0
365366  1  0
366367  1  0
367368  1  0
368369  1  0
369370  1  0
364371  1  6
M  END
